<?xml version="1.0" encoding="UTF-8"?>

<vehicleDefinitions xmlns="http://www.matsim.org/files/dtd" xmlns:xsi="http://www.w3.org/2001/XMLSchema-instance" xsi:schemaLocation="http://www.matsim.org/files/dtd http://www.matsim.org/files/dtd/vehicleDefinitions_v1.0.xsd">
	<vehicleType id="defaultTransitVehicleType">
		<capacity>
			<seats persons="101"/>
			<standingRoom persons="0"/>
		</capacity>
		<length meter="7.5"/>
		<width meter="1.0"/>
		<accessTime secondsPerPerson="1.0"/>
		<egressTime secondsPerPerson="1.0"/>
		<doorOperation mode="serial"/>
		<passengerCarEquivalents pce="1.0"/>
	</vehicleType>
	<vehicle id="tr_0" type="defaultTransitVehicleType"/>
	<vehicle id="tr_1" type="defaultTransitVehicleType"/>
	<vehicle id="tr_2" type="defaultTransitVehicleType"/>
	<vehicle id="tr_3" type="defaultTransitVehicleType"/>
	<vehicle id="tr_4" type="defaultTransitVehicleType"/>
	<vehicle id="tr_5" type="defaultTransitVehicleType"/>
	<vehicle id="tr_6" type="defaultTransitVehicleType"/>
	<vehicle id="tr_7" type="defaultTransitVehicleType"/>
	<vehicle id="tr_8" type="defaultTransitVehicleType"/>
	<vehicle id="tr_9" type="defaultTransitVehicleType"/>
	<vehicle id="tr_10" type="defaultTransitVehicleType"/>
	<vehicle id="tr_11" type="defaultTransitVehicleType"/>
	<vehicle id="tr_12" type="defaultTransitVehicleType"/>
	<vehicle id="tr_13" type="defaultTransitVehicleType"/>
	<vehicle id="tr_14" type="defaultTransitVehicleType"/>
	<vehicle id="tr_15" type="defaultTransitVehicleType"/>
	<vehicle id="tr_16" type="defaultTransitVehicleType"/>
	<vehicle id="tr_17" type="defaultTransitVehicleType"/>
	<vehicle id="tr_18" type="defaultTransitVehicleType"/>
	<vehicle id="tr_19" type="defaultTransitVehicleType"/>
	<vehicle id="tr_20" type="defaultTransitVehicleType"/>
	<vehicle id="tr_21" type="defaultTransitVehicleType"/>
	<vehicle id="tr_22" type="defaultTransitVehicleType"/>
	<vehicle id="tr_23" type="defaultTransitVehicleType"/>
	<vehicle id="tr_24" type="defaultTransitVehicleType"/>
	<vehicle id="tr_25" type="defaultTransitVehicleType"/>
	<vehicle id="tr_26" type="defaultTransitVehicleType"/>
	<vehicle id="tr_27" type="defaultTransitVehicleType"/>
	<vehicle id="tr_28" type="defaultTransitVehicleType"/>
	<vehicle id="tr_29" type="defaultTransitVehicleType"/>
	<vehicle id="tr_30" type="defaultTransitVehicleType"/>
	<vehicle id="tr_31" type="defaultTransitVehicleType"/>
	<vehicle id="tr_32" type="defaultTransitVehicleType"/>
	<vehicle id="tr_33" type="defaultTransitVehicleType"/>
	<vehicle id="tr_34" type="defaultTransitVehicleType"/>
	<vehicle id="tr_35" type="defaultTransitVehicleType"/>
	<vehicle id="tr_36" type="defaultTransitVehicleType"/>
	<vehicle id="tr_37" type="defaultTransitVehicleType"/>
	<vehicle id="tr_38" type="defaultTransitVehicleType"/>
	<vehicle id="tr_39" type="defaultTransitVehicleType"/>
	<vehicle id="tr_40" type="defaultTransitVehicleType"/>
	<vehicle id="tr_41" type="defaultTransitVehicleType"/>
	<vehicle id="tr_42" type="defaultTransitVehicleType"/>
	<vehicle id="tr_43" type="defaultTransitVehicleType"/>
	<vehicle id="tr_44" type="defaultTransitVehicleType"/>
	<vehicle id="tr_45" type="defaultTransitVehicleType"/>
	<vehicle id="tr_46" type="defaultTransitVehicleType"/>
	<vehicle id="tr_47" type="defaultTransitVehicleType"/>
	<vehicle id="tr_48" type="defaultTransitVehicleType"/>
	<vehicle id="tr_49" type="defaultTransitVehicleType"/>
	<vehicle id="tr_50" type="defaultTransitVehicleType"/>
	<vehicle id="tr_51" type="defaultTransitVehicleType"/>
	<vehicle id="tr_52" type="defaultTransitVehicleType"/>
	<vehicle id="tr_53" type="defaultTransitVehicleType"/>
	<vehicle id="tr_54" type="defaultTransitVehicleType"/>
	<vehicle id="tr_55" type="defaultTransitVehicleType"/>
	<vehicle id="tr_56" type="defaultTransitVehicleType"/>
	<vehicle id="tr_57" type="defaultTransitVehicleType"/>
	<vehicle id="tr_58" type="defaultTransitVehicleType"/>
	<vehicle id="tr_59" type="defaultTransitVehicleType"/>
	<vehicle id="tr_60" type="defaultTransitVehicleType"/>
	<vehicle id="tr_61" type="defaultTransitVehicleType"/>
	<vehicle id="tr_62" type="defaultTransitVehicleType"/>
	<vehicle id="tr_63" type="defaultTransitVehicleType"/>
	<vehicle id="tr_64" type="defaultTransitVehicleType"/>
	<vehicle id="tr_65" type="defaultTransitVehicleType"/>
	<vehicle id="tr_66" type="defaultTransitVehicleType"/>
	<vehicle id="tr_67" type="defaultTransitVehicleType"/>
	<vehicle id="tr_68" type="defaultTransitVehicleType"/>
	<vehicle id="tr_69" type="defaultTransitVehicleType"/>
	<vehicle id="tr_70" type="defaultTransitVehicleType"/>
	<vehicle id="tr_71" type="defaultTransitVehicleType"/>
	<vehicle id="tr_72" type="defaultTransitVehicleType"/>
	<vehicle id="tr_73" type="defaultTransitVehicleType"/>
	<vehicle id="tr_74" type="defaultTransitVehicleType"/>
	<vehicle id="tr_75" type="defaultTransitVehicleType"/>
	<vehicle id="tr_76" type="defaultTransitVehicleType"/>
	<vehicle id="tr_77" type="defaultTransitVehicleType"/>
	<vehicle id="tr_78" type="defaultTransitVehicleType"/>
	<vehicle id="tr_79" type="defaultTransitVehicleType"/>
	<vehicle id="tr_80" type="defaultTransitVehicleType"/>
	<vehicle id="tr_81" type="defaultTransitVehicleType"/>
	<vehicle id="tr_82" type="defaultTransitVehicleType"/>
	<vehicle id="tr_83" type="defaultTransitVehicleType"/>
	<vehicle id="tr_84" type="defaultTransitVehicleType"/>
	<vehicle id="tr_85" type="defaultTransitVehicleType"/>
	<vehicle id="tr_86" type="defaultTransitVehicleType"/>
	<vehicle id="tr_87" type="defaultTransitVehicleType"/>
	<vehicle id="tr_88" type="defaultTransitVehicleType"/>
	<vehicle id="tr_89" type="defaultTransitVehicleType"/>
	<vehicle id="tr_90" type="defaultTransitVehicleType"/>
	<vehicle id="tr_91" type="defaultTransitVehicleType"/>
	<vehicle id="tr_92" type="defaultTransitVehicleType"/>
	<vehicle id="tr_93" type="defaultTransitVehicleType"/>
	<vehicle id="tr_94" type="defaultTransitVehicleType"/>
	<vehicle id="tr_95" type="defaultTransitVehicleType"/>
	<vehicle id="tr_96" type="defaultTransitVehicleType"/>
	<vehicle id="tr_97" type="defaultTransitVehicleType"/>
	<vehicle id="tr_98" type="defaultTransitVehicleType"/>
	<vehicle id="tr_99" type="defaultTransitVehicleType"/>
	<vehicle id="tr_100" type="defaultTransitVehicleType"/>
	<vehicle id="tr_101" type="defaultTransitVehicleType"/>
	<vehicle id="tr_102" type="defaultTransitVehicleType"/>
	<vehicle id="tr_103" type="defaultTransitVehicleType"/>
	<vehicle id="tr_104" type="defaultTransitVehicleType"/>
	<vehicle id="tr_105" type="defaultTransitVehicleType"/>
	<vehicle id="tr_106" type="defaultTransitVehicleType"/>
	<vehicle id="tr_107" type="defaultTransitVehicleType"/>
	<vehicle id="tr_108" type="defaultTransitVehicleType"/>
	<vehicle id="tr_109" type="defaultTransitVehicleType"/>
	<vehicle id="tr_110" type="defaultTransitVehicleType"/>
	<vehicle id="tr_111" type="defaultTransitVehicleType"/>
	<vehicle id="tr_112" type="defaultTransitVehicleType"/>
	<vehicle id="tr_113" type="defaultTransitVehicleType"/>
	<vehicle id="tr_114" type="defaultTransitVehicleType"/>
	<vehicle id="tr_115" type="defaultTransitVehicleType"/>
	<vehicle id="tr_116" type="defaultTransitVehicleType"/>
	<vehicle id="tr_117" type="defaultTransitVehicleType"/>
	<vehicle id="tr_118" type="defaultTransitVehicleType"/>
	<vehicle id="tr_119" type="defaultTransitVehicleType"/>
	<vehicle id="tr_120" type="defaultTransitVehicleType"/>
	<vehicle id="tr_121" type="defaultTransitVehicleType"/>
	<vehicle id="tr_122" type="defaultTransitVehicleType"/>
	<vehicle id="tr_123" type="defaultTransitVehicleType"/>
	<vehicle id="tr_124" type="defaultTransitVehicleType"/>
	<vehicle id="tr_125" type="defaultTransitVehicleType"/>
	<vehicle id="tr_126" type="defaultTransitVehicleType"/>
	<vehicle id="tr_127" type="defaultTransitVehicleType"/>
	<vehicle id="tr_128" type="defaultTransitVehicleType"/>
	<vehicle id="tr_129" type="defaultTransitVehicleType"/>
	<vehicle id="tr_130" type="defaultTransitVehicleType"/>
	<vehicle id="tr_131" type="defaultTransitVehicleType"/>
	<vehicle id="tr_132" type="defaultTransitVehicleType"/>
	<vehicle id="tr_133" type="defaultTransitVehicleType"/>
	<vehicle id="tr_134" type="defaultTransitVehicleType"/>
	<vehicle id="tr_135" type="defaultTransitVehicleType"/>
	<vehicle id="tr_136" type="defaultTransitVehicleType"/>
	<vehicle id="tr_137" type="defaultTransitVehicleType"/>
	<vehicle id="tr_138" type="defaultTransitVehicleType"/>
	<vehicle id="tr_139" type="defaultTransitVehicleType"/>
	<vehicle id="tr_140" type="defaultTransitVehicleType"/>
	<vehicle id="tr_141" type="defaultTransitVehicleType"/>
	<vehicle id="tr_142" type="defaultTransitVehicleType"/>
	<vehicle id="tr_143" type="defaultTransitVehicleType"/>
	<vehicle id="tr_144" type="defaultTransitVehicleType"/>
	<vehicle id="tr_145" type="defaultTransitVehicleType"/>
	<vehicle id="tr_146" type="defaultTransitVehicleType"/>
	<vehicle id="tr_147" type="defaultTransitVehicleType"/>
	<vehicle id="tr_148" type="defaultTransitVehicleType"/>
	<vehicle id="tr_149" type="defaultTransitVehicleType"/>
	<vehicle id="tr_150" type="defaultTransitVehicleType"/>
	<vehicle id="tr_151" type="defaultTransitVehicleType"/>
	<vehicle id="tr_152" type="defaultTransitVehicleType"/>
	<vehicle id="tr_153" type="defaultTransitVehicleType"/>
	<vehicle id="tr_154" type="defaultTransitVehicleType"/>
	<vehicle id="tr_155" type="defaultTransitVehicleType"/>
	<vehicle id="tr_156" type="defaultTransitVehicleType"/>
	<vehicle id="tr_157" type="defaultTransitVehicleType"/>
	<vehicle id="tr_158" type="defaultTransitVehicleType"/>
	<vehicle id="tr_159" type="defaultTransitVehicleType"/>
	<vehicle id="tr_160" type="defaultTransitVehicleType"/>
	<vehicle id="tr_161" type="defaultTransitVehicleType"/>
	<vehicle id="tr_162" type="defaultTransitVehicleType"/>
	<vehicle id="tr_163" type="defaultTransitVehicleType"/>
	<vehicle id="tr_164" type="defaultTransitVehicleType"/>
	<vehicle id="tr_165" type="defaultTransitVehicleType"/>
	<vehicle id="tr_166" type="defaultTransitVehicleType"/>
	<vehicle id="tr_167" type="defaultTransitVehicleType"/>
	<vehicle id="tr_168" type="defaultTransitVehicleType"/>
	<vehicle id="tr_169" type="defaultTransitVehicleType"/>
	<vehicle id="tr_170" type="defaultTransitVehicleType"/>
	<vehicle id="tr_171" type="defaultTransitVehicleType"/>
	<vehicle id="tr_172" type="defaultTransitVehicleType"/>
	<vehicle id="tr_173" type="defaultTransitVehicleType"/>
	<vehicle id="tr_174" type="defaultTransitVehicleType"/>
	<vehicle id="tr_175" type="defaultTransitVehicleType"/>
	<vehicle id="tr_176" type="defaultTransitVehicleType"/>
	<vehicle id="tr_177" type="defaultTransitVehicleType"/>
	<vehicle id="tr_178" type="defaultTransitVehicleType"/>
	<vehicle id="tr_179" type="defaultTransitVehicleType"/>
	<vehicle id="tr_180" type="defaultTransitVehicleType"/>
	<vehicle id="tr_181" type="defaultTransitVehicleType"/>
	<vehicle id="tr_182" type="defaultTransitVehicleType"/>
	<vehicle id="tr_183" type="defaultTransitVehicleType"/>
	<vehicle id="tr_184" type="defaultTransitVehicleType"/>
	<vehicle id="tr_185" type="defaultTransitVehicleType"/>
	<vehicle id="tr_186" type="defaultTransitVehicleType"/>
	<vehicle id="tr_187" type="defaultTransitVehicleType"/>
	<vehicle id="tr_188" type="defaultTransitVehicleType"/>
	<vehicle id="tr_189" type="defaultTransitVehicleType"/>
	<vehicle id="tr_190" type="defaultTransitVehicleType"/>
	<vehicle id="tr_191" type="defaultTransitVehicleType"/>
	<vehicle id="tr_192" type="defaultTransitVehicleType"/>
	<vehicle id="tr_193" type="defaultTransitVehicleType"/>
	<vehicle id="tr_194" type="defaultTransitVehicleType"/>
	<vehicle id="tr_195" type="defaultTransitVehicleType"/>
	<vehicle id="tr_196" type="defaultTransitVehicleType"/>
	<vehicle id="tr_197" type="defaultTransitVehicleType"/>
	<vehicle id="tr_198" type="defaultTransitVehicleType"/>
	<vehicle id="tr_199" type="defaultTransitVehicleType"/>
	<vehicle id="tr_200" type="defaultTransitVehicleType"/>
	<vehicle id="tr_201" type="defaultTransitVehicleType"/>
	<vehicle id="tr_202" type="defaultTransitVehicleType"/>
	<vehicle id="tr_203" type="defaultTransitVehicleType"/>
	<vehicle id="tr_204" type="defaultTransitVehicleType"/>
	<vehicle id="tr_205" type="defaultTransitVehicleType"/>
	<vehicle id="tr_206" type="defaultTransitVehicleType"/>
	<vehicle id="tr_207" type="defaultTransitVehicleType"/>
	<vehicle id="tr_208" type="defaultTransitVehicleType"/>
	<vehicle id="tr_209" type="defaultTransitVehicleType"/>
	<vehicle id="tr_210" type="defaultTransitVehicleType"/>
	<vehicle id="tr_211" type="defaultTransitVehicleType"/>
	<vehicle id="tr_212" type="defaultTransitVehicleType"/>
	<vehicle id="tr_213" type="defaultTransitVehicleType"/>
	<vehicle id="tr_214" type="defaultTransitVehicleType"/>
	<vehicle id="tr_215" type="defaultTransitVehicleType"/>
	<vehicle id="tr_216" type="defaultTransitVehicleType"/>
	<vehicle id="tr_217" type="defaultTransitVehicleType"/>
	<vehicle id="tr_218" type="defaultTransitVehicleType"/>
	<vehicle id="tr_219" type="defaultTransitVehicleType"/>
	<vehicle id="tr_220" type="defaultTransitVehicleType"/>
	<vehicle id="tr_221" type="defaultTransitVehicleType"/>
	<vehicle id="tr_222" type="defaultTransitVehicleType"/>
	<vehicle id="tr_223" type="defaultTransitVehicleType"/>
	<vehicle id="tr_224" type="defaultTransitVehicleType"/>
	<vehicle id="tr_225" type="defaultTransitVehicleType"/>
	<vehicle id="tr_226" type="defaultTransitVehicleType"/>
	<vehicle id="tr_227" type="defaultTransitVehicleType"/>
	<vehicle id="tr_228" type="defaultTransitVehicleType"/>
	<vehicle id="tr_229" type="defaultTransitVehicleType"/>
	<vehicle id="tr_230" type="defaultTransitVehicleType"/>
	<vehicle id="tr_231" type="defaultTransitVehicleType"/>
	<vehicle id="tr_232" type="defaultTransitVehicleType"/>
	<vehicle id="tr_233" type="defaultTransitVehicleType"/>
	<vehicle id="tr_234" type="defaultTransitVehicleType"/>
	<vehicle id="tr_235" type="defaultTransitVehicleType"/>
	<vehicle id="tr_236" type="defaultTransitVehicleType"/>
	<vehicle id="tr_237" type="defaultTransitVehicleType"/>
	<vehicle id="tr_238" type="defaultTransitVehicleType"/>
	<vehicle id="tr_239" type="defaultTransitVehicleType"/>
	<vehicle id="tr_240" type="defaultTransitVehicleType"/>
	<vehicle id="tr_241" type="defaultTransitVehicleType"/>
	<vehicle id="tr_242" type="defaultTransitVehicleType"/>
	<vehicle id="tr_243" type="defaultTransitVehicleType"/>
	<vehicle id="tr_244" type="defaultTransitVehicleType"/>
	<vehicle id="tr_245" type="defaultTransitVehicleType"/>
	<vehicle id="tr_246" type="defaultTransitVehicleType"/>
	<vehicle id="tr_247" type="defaultTransitVehicleType"/>
	<vehicle id="tr_248" type="defaultTransitVehicleType"/>
	<vehicle id="tr_249" type="defaultTransitVehicleType"/>
	<vehicle id="tr_250" type="defaultTransitVehicleType"/>
	<vehicle id="tr_251" type="defaultTransitVehicleType"/>
	<vehicle id="tr_252" type="defaultTransitVehicleType"/>
	<vehicle id="tr_253" type="defaultTransitVehicleType"/>
	<vehicle id="tr_254" type="defaultTransitVehicleType"/>
	<vehicle id="tr_255" type="defaultTransitVehicleType"/>
	<vehicle id="tr_256" type="defaultTransitVehicleType"/>
	<vehicle id="tr_257" type="defaultTransitVehicleType"/>
	<vehicle id="tr_258" type="defaultTransitVehicleType"/>
	<vehicle id="tr_259" type="defaultTransitVehicleType"/>
	<vehicle id="tr_260" type="defaultTransitVehicleType"/>
	<vehicle id="tr_261" type="defaultTransitVehicleType"/>
	<vehicle id="tr_262" type="defaultTransitVehicleType"/>
	<vehicle id="tr_263" type="defaultTransitVehicleType"/>
	<vehicle id="tr_264" type="defaultTransitVehicleType"/>
	<vehicle id="tr_265" type="defaultTransitVehicleType"/>
	<vehicle id="tr_266" type="defaultTransitVehicleType"/>
	<vehicle id="tr_267" type="defaultTransitVehicleType"/>
	<vehicle id="tr_268" type="defaultTransitVehicleType"/>
	<vehicle id="tr_269" type="defaultTransitVehicleType"/>
	<vehicle id="tr_270" type="defaultTransitVehicleType"/>
	<vehicle id="tr_271" type="defaultTransitVehicleType"/>
	<vehicle id="tr_272" type="defaultTransitVehicleType"/>
	<vehicle id="tr_273" type="defaultTransitVehicleType"/>
	<vehicle id="tr_274" type="defaultTransitVehicleType"/>
	<vehicle id="tr_275" type="defaultTransitVehicleType"/>
	<vehicle id="tr_276" type="defaultTransitVehicleType"/>
	<vehicle id="tr_277" type="defaultTransitVehicleType"/>
	<vehicle id="tr_278" type="defaultTransitVehicleType"/>
	<vehicle id="tr_279" type="defaultTransitVehicleType"/>
	<vehicle id="tr_280" type="defaultTransitVehicleType"/>
	<vehicle id="tr_281" type="defaultTransitVehicleType"/>
	<vehicle id="tr_282" type="defaultTransitVehicleType"/>
	<vehicle id="tr_283" type="defaultTransitVehicleType"/>
	<vehicle id="tr_284" type="defaultTransitVehicleType"/>
	<vehicle id="tr_285" type="defaultTransitVehicleType"/>
	<vehicle id="tr_286" type="defaultTransitVehicleType"/>
	<vehicle id="tr_287" type="defaultTransitVehicleType"/>
	<vehicle id="tr_288" type="defaultTransitVehicleType"/>
	<vehicle id="tr_289" type="defaultTransitVehicleType"/>
	<vehicle id="tr_290" type="defaultTransitVehicleType"/>
	<vehicle id="tr_291" type="defaultTransitVehicleType"/>
	<vehicle id="tr_292" type="defaultTransitVehicleType"/>
	<vehicle id="tr_293" type="defaultTransitVehicleType"/>
	<vehicle id="tr_294" type="defaultTransitVehicleType"/>
	<vehicle id="tr_295" type="defaultTransitVehicleType"/>
	<vehicle id="tr_296" type="defaultTransitVehicleType"/>
	<vehicle id="tr_297" type="defaultTransitVehicleType"/>
	<vehicle id="tr_298" type="defaultTransitVehicleType"/>
	<vehicle id="tr_299" type="defaultTransitVehicleType"/>
	<vehicle id="tr_300" type="defaultTransitVehicleType"/>
	<vehicle id="tr_301" type="defaultTransitVehicleType"/>
	<vehicle id="tr_302" type="defaultTransitVehicleType"/>
	<vehicle id="tr_303" type="defaultTransitVehicleType"/>
	<vehicle id="tr_304" type="defaultTransitVehicleType"/>
	<vehicle id="tr_305" type="defaultTransitVehicleType"/>
	<vehicle id="tr_306" type="defaultTransitVehicleType"/>
	<vehicle id="tr_307" type="defaultTransitVehicleType"/>
	<vehicle id="tr_308" type="defaultTransitVehicleType"/>
	<vehicle id="tr_309" type="defaultTransitVehicleType"/>
	<vehicle id="tr_310" type="defaultTransitVehicleType"/>
	<vehicle id="tr_311" type="defaultTransitVehicleType"/>
	<vehicle id="tr_312" type="defaultTransitVehicleType"/>
	<vehicle id="tr_313" type="defaultTransitVehicleType"/>
	<vehicle id="tr_314" type="defaultTransitVehicleType"/>
	<vehicle id="tr_315" type="defaultTransitVehicleType"/>
	<vehicle id="tr_316" type="defaultTransitVehicleType"/>
	<vehicle id="tr_317" type="defaultTransitVehicleType"/>
	<vehicle id="tr_318" type="defaultTransitVehicleType"/>
	<vehicle id="tr_319" type="defaultTransitVehicleType"/>
	<vehicle id="tr_320" type="defaultTransitVehicleType"/>
	<vehicle id="tr_321" type="defaultTransitVehicleType"/>
	<vehicle id="tr_322" type="defaultTransitVehicleType"/>
	<vehicle id="tr_323" type="defaultTransitVehicleType"/>
	<vehicle id="tr_324" type="defaultTransitVehicleType"/>
	<vehicle id="tr_325" type="defaultTransitVehicleType"/>
	<vehicle id="tr_326" type="defaultTransitVehicleType"/>
	<vehicle id="tr_327" type="defaultTransitVehicleType"/>
	<vehicle id="tr_328" type="defaultTransitVehicleType"/>
	<vehicle id="tr_329" type="defaultTransitVehicleType"/>
	<vehicle id="tr_330" type="defaultTransitVehicleType"/>
	<vehicle id="tr_331" type="defaultTransitVehicleType"/>
	<vehicle id="tr_332" type="defaultTransitVehicleType"/>
	<vehicle id="tr_333" type="defaultTransitVehicleType"/>
	<vehicle id="tr_334" type="defaultTransitVehicleType"/>
	<vehicle id="tr_335" type="defaultTransitVehicleType"/>
	<vehicle id="tr_336" type="defaultTransitVehicleType"/>
	<vehicle id="tr_337" type="defaultTransitVehicleType"/>
	<vehicle id="tr_338" type="defaultTransitVehicleType"/>
	<vehicle id="tr_339" type="defaultTransitVehicleType"/>
	<vehicle id="tr_340" type="defaultTransitVehicleType"/>
	<vehicle id="tr_341" type="defaultTransitVehicleType"/>
	<vehicle id="tr_342" type="defaultTransitVehicleType"/>
	<vehicle id="tr_343" type="defaultTransitVehicleType"/>
	<vehicle id="tr_344" type="defaultTransitVehicleType"/>
	<vehicle id="tr_345" type="defaultTransitVehicleType"/>
	<vehicle id="tr_346" type="defaultTransitVehicleType"/>
	<vehicle id="tr_347" type="defaultTransitVehicleType"/>
	<vehicle id="tr_348" type="defaultTransitVehicleType"/>
	<vehicle id="tr_349" type="defaultTransitVehicleType"/>
	<vehicle id="tr_350" type="defaultTransitVehicleType"/>
	<vehicle id="tr_351" type="defaultTransitVehicleType"/>
	<vehicle id="tr_352" type="defaultTransitVehicleType"/>
	<vehicle id="tr_353" type="defaultTransitVehicleType"/>
	<vehicle id="tr_354" type="defaultTransitVehicleType"/>
	<vehicle id="tr_355" type="defaultTransitVehicleType"/>
	<vehicle id="tr_356" type="defaultTransitVehicleType"/>
	<vehicle id="tr_357" type="defaultTransitVehicleType"/>
	<vehicle id="tr_358" type="defaultTransitVehicleType"/>
	<vehicle id="tr_359" type="defaultTransitVehicleType"/>
	<vehicle id="tr_360" type="defaultTransitVehicleType"/>
	<vehicle id="tr_361" type="defaultTransitVehicleType"/>
	<vehicle id="tr_362" type="defaultTransitVehicleType"/>
	<vehicle id="tr_363" type="defaultTransitVehicleType"/>
	<vehicle id="tr_364" type="defaultTransitVehicleType"/>
	<vehicle id="tr_365" type="defaultTransitVehicleType"/>
	<vehicle id="tr_366" type="defaultTransitVehicleType"/>
	<vehicle id="tr_367" type="defaultTransitVehicleType"/>
	<vehicle id="tr_368" type="defaultTransitVehicleType"/>
	<vehicle id="tr_369" type="defaultTransitVehicleType"/>
	<vehicle id="tr_370" type="defaultTransitVehicleType"/>
	<vehicle id="tr_371" type="defaultTransitVehicleType"/>
	<vehicle id="tr_372" type="defaultTransitVehicleType"/>
	<vehicle id="tr_373" type="defaultTransitVehicleType"/>
	<vehicle id="tr_374" type="defaultTransitVehicleType"/>
	<vehicle id="tr_375" type="defaultTransitVehicleType"/>
	<vehicle id="tr_376" type="defaultTransitVehicleType"/>
	<vehicle id="tr_377" type="defaultTransitVehicleType"/>
	<vehicle id="tr_378" type="defaultTransitVehicleType"/>
	<vehicle id="tr_379" type="defaultTransitVehicleType"/>
	<vehicle id="tr_380" type="defaultTransitVehicleType"/>
	<vehicle id="tr_381" type="defaultTransitVehicleType"/>
	<vehicle id="tr_382" type="defaultTransitVehicleType"/>
	<vehicle id="tr_383" type="defaultTransitVehicleType"/>
	<vehicle id="tr_384" type="defaultTransitVehicleType"/>
	<vehicle id="tr_385" type="defaultTransitVehicleType"/>
	<vehicle id="tr_386" type="defaultTransitVehicleType"/>
	<vehicle id="tr_387" type="defaultTransitVehicleType"/>
	<vehicle id="tr_388" type="defaultTransitVehicleType"/>
	<vehicle id="tr_389" type="defaultTransitVehicleType"/>
	<vehicle id="tr_390" type="defaultTransitVehicleType"/>
	<vehicle id="tr_391" type="defaultTransitVehicleType"/>
	<vehicle id="tr_392" type="defaultTransitVehicleType"/>
	<vehicle id="tr_393" type="defaultTransitVehicleType"/>
	<vehicle id="tr_394" type="defaultTransitVehicleType"/>
	<vehicle id="tr_395" type="defaultTransitVehicleType"/>
	<vehicle id="tr_396" type="defaultTransitVehicleType"/>
	<vehicle id="tr_397" type="defaultTransitVehicleType"/>
	<vehicle id="tr_398" type="defaultTransitVehicleType"/>
	<vehicle id="tr_399" type="defaultTransitVehicleType"/>
	<vehicle id="tr_400" type="defaultTransitVehicleType"/>
	<vehicle id="tr_401" type="defaultTransitVehicleType"/>
	<vehicle id="tr_402" type="defaultTransitVehicleType"/>
	<vehicle id="tr_403" type="defaultTransitVehicleType"/>
	<vehicle id="tr_404" type="defaultTransitVehicleType"/>
	<vehicle id="tr_405" type="defaultTransitVehicleType"/>
	<vehicle id="tr_406" type="defaultTransitVehicleType"/>
	<vehicle id="tr_407" type="defaultTransitVehicleType"/>
	<vehicle id="tr_408" type="defaultTransitVehicleType"/>
	<vehicle id="tr_409" type="defaultTransitVehicleType"/>
	<vehicle id="tr_410" type="defaultTransitVehicleType"/>
	<vehicle id="tr_411" type="defaultTransitVehicleType"/>
	<vehicle id="tr_412" type="defaultTransitVehicleType"/>
	<vehicle id="tr_413" type="defaultTransitVehicleType"/>
	<vehicle id="tr_414" type="defaultTransitVehicleType"/>
	<vehicle id="tr_415" type="defaultTransitVehicleType"/>
	<vehicle id="tr_416" type="defaultTransitVehicleType"/>
	<vehicle id="tr_417" type="defaultTransitVehicleType"/>
	<vehicle id="tr_418" type="defaultTransitVehicleType"/>
	<vehicle id="tr_419" type="defaultTransitVehicleType"/>
	<vehicle id="tr_420" type="defaultTransitVehicleType"/>
	<vehicle id="tr_421" type="defaultTransitVehicleType"/>
	<vehicle id="tr_422" type="defaultTransitVehicleType"/>
	<vehicle id="tr_423" type="defaultTransitVehicleType"/>
	<vehicle id="tr_424" type="defaultTransitVehicleType"/>
	<vehicle id="tr_425" type="defaultTransitVehicleType"/>
	<vehicle id="tr_426" type="defaultTransitVehicleType"/>
	<vehicle id="tr_427" type="defaultTransitVehicleType"/>
	<vehicle id="tr_428" type="defaultTransitVehicleType"/>
	<vehicle id="tr_429" type="defaultTransitVehicleType"/>
	<vehicle id="tr_430" type="defaultTransitVehicleType"/>
	<vehicle id="tr_431" type="defaultTransitVehicleType"/>
	<vehicle id="tr_432" type="defaultTransitVehicleType"/>
	<vehicle id="tr_433" type="defaultTransitVehicleType"/>
	<vehicle id="tr_434" type="defaultTransitVehicleType"/>
	<vehicle id="tr_435" type="defaultTransitVehicleType"/>
	<vehicle id="tr_436" type="defaultTransitVehicleType"/>
	<vehicle id="tr_437" type="defaultTransitVehicleType"/>
	<vehicle id="tr_438" type="defaultTransitVehicleType"/>
	<vehicle id="tr_439" type="defaultTransitVehicleType"/>
	<vehicle id="tr_440" type="defaultTransitVehicleType"/>
	<vehicle id="tr_441" type="defaultTransitVehicleType"/>
	<vehicle id="tr_442" type="defaultTransitVehicleType"/>
	<vehicle id="tr_443" type="defaultTransitVehicleType"/>
	<vehicle id="tr_444" type="defaultTransitVehicleType"/>
	<vehicle id="tr_445" type="defaultTransitVehicleType"/>
	<vehicle id="tr_446" type="defaultTransitVehicleType"/>
	<vehicle id="tr_447" type="defaultTransitVehicleType"/>
	<vehicle id="tr_448" type="defaultTransitVehicleType"/>
	<vehicle id="tr_449" type="defaultTransitVehicleType"/>
	<vehicle id="tr_450" type="defaultTransitVehicleType"/>
	<vehicle id="tr_451" type="defaultTransitVehicleType"/>
	<vehicle id="tr_452" type="defaultTransitVehicleType"/>
	<vehicle id="tr_453" type="defaultTransitVehicleType"/>
	<vehicle id="tr_454" type="defaultTransitVehicleType"/>
	<vehicle id="tr_455" type="defaultTransitVehicleType"/>
	<vehicle id="tr_456" type="defaultTransitVehicleType"/>
	<vehicle id="tr_457" type="defaultTransitVehicleType"/>
	<vehicle id="tr_458" type="defaultTransitVehicleType"/>
	<vehicle id="tr_459" type="defaultTransitVehicleType"/>
	<vehicle id="tr_460" type="defaultTransitVehicleType"/>
	<vehicle id="tr_461" type="defaultTransitVehicleType"/>
	<vehicle id="tr_462" type="defaultTransitVehicleType"/>
	<vehicle id="tr_463" type="defaultTransitVehicleType"/>
	<vehicle id="tr_464" type="defaultTransitVehicleType"/>
	<vehicle id="tr_465" type="defaultTransitVehicleType"/>
	<vehicle id="tr_466" type="defaultTransitVehicleType"/>
	<vehicle id="tr_467" type="defaultTransitVehicleType"/>
	<vehicle id="tr_468" type="defaultTransitVehicleType"/>
	<vehicle id="tr_469" type="defaultTransitVehicleType"/>
	<vehicle id="tr_470" type="defaultTransitVehicleType"/>
	<vehicle id="tr_471" type="defaultTransitVehicleType"/>
	<vehicle id="tr_472" type="defaultTransitVehicleType"/>
	<vehicle id="tr_473" type="defaultTransitVehicleType"/>
	<vehicle id="tr_474" type="defaultTransitVehicleType"/>
	<vehicle id="tr_475" type="defaultTransitVehicleType"/>
	<vehicle id="tr_476" type="defaultTransitVehicleType"/>
	<vehicle id="tr_477" type="defaultTransitVehicleType"/>
	<vehicle id="tr_478" type="defaultTransitVehicleType"/>
	<vehicle id="tr_479" type="defaultTransitVehicleType"/>
	<vehicle id="tr_480" type="defaultTransitVehicleType"/>
	<vehicle id="tr_481" type="defaultTransitVehicleType"/>
	<vehicle id="tr_482" type="defaultTransitVehicleType"/>
	<vehicle id="tr_483" type="defaultTransitVehicleType"/>
	<vehicle id="tr_484" type="defaultTransitVehicleType"/>
	<vehicle id="tr_485" type="defaultTransitVehicleType"/>
	<vehicle id="tr_486" type="defaultTransitVehicleType"/>
	<vehicle id="tr_487" type="defaultTransitVehicleType"/>
	<vehicle id="tr_488" type="defaultTransitVehicleType"/>
	<vehicle id="tr_489" type="defaultTransitVehicleType"/>
	<vehicle id="tr_490" type="defaultTransitVehicleType"/>
	<vehicle id="tr_491" type="defaultTransitVehicleType"/>
	<vehicle id="tr_492" type="defaultTransitVehicleType"/>
	<vehicle id="tr_493" type="defaultTransitVehicleType"/>
	<vehicle id="tr_494" type="defaultTransitVehicleType"/>
	<vehicle id="tr_495" type="defaultTransitVehicleType"/>
	<vehicle id="tr_496" type="defaultTransitVehicleType"/>
	<vehicle id="tr_497" type="defaultTransitVehicleType"/>
	<vehicle id="tr_498" type="defaultTransitVehicleType"/>
	<vehicle id="tr_499" type="defaultTransitVehicleType"/>
	<vehicle id="tr_500" type="defaultTransitVehicleType"/>
	<vehicle id="tr_501" type="defaultTransitVehicleType"/>
	<vehicle id="tr_502" type="defaultTransitVehicleType"/>
	<vehicle id="tr_503" type="defaultTransitVehicleType"/>
	<vehicle id="tr_504" type="defaultTransitVehicleType"/>
	<vehicle id="tr_505" type="defaultTransitVehicleType"/>
	<vehicle id="tr_506" type="defaultTransitVehicleType"/>
	<vehicle id="tr_507" type="defaultTransitVehicleType"/>
	<vehicle id="tr_508" type="defaultTransitVehicleType"/>
	<vehicle id="tr_509" type="defaultTransitVehicleType"/>
	<vehicle id="tr_510" type="defaultTransitVehicleType"/>
	<vehicle id="tr_511" type="defaultTransitVehicleType"/>
	<vehicle id="tr_512" type="defaultTransitVehicleType"/>
	<vehicle id="tr_513" type="defaultTransitVehicleType"/>
	<vehicle id="tr_514" type="defaultTransitVehicleType"/>
	<vehicle id="tr_515" type="defaultTransitVehicleType"/>
	<vehicle id="tr_516" type="defaultTransitVehicleType"/>